*include, input=box.msh

** material definition
*material, name=steel
*elastic
210000,0.333333333,0
*density
7.85e-9
*expansion
12e-6
*conductivity
50.,0
*specific heat
5e8,0

** material assignment to bodies
*solid section, elset=Eall, material=steel

** initial temperature
*initial conditions, type=temperature
Nall,25

*step

*COUPLED TEMPERATURE-DISPLACEMENT,DIRECT
0.1,0.5

*dflux,OP=NEW
Eall,BFNU,1.

*node file
NT,U
*el file
S,HFL

*end step
